Circuit: * C:\Users\elias\OneDrive\Escritorio\ELIAS\8vo_semestre\Lab Electrónica\Exp1\lab1anal.asc

Direct Newton iteration for .op point succeeded.

Date: Fri Aug 26 15:21:43 2022
Total elapsed time: 0.241 seconds.

tnom = 27
temp = 27
method = trap
totiter = 11
traniter = 0
tranpoints = 0
accept = 0
rejected = 0
matrix size = 14
fillins = 2
solver = Normal
Matrix Compiler1:      39 opcodes
Matrix Compiler2: 1.30 KB object code size
