Circuit: * C:\Users\elias\OneDrive\Escritorio\ELIAS\8vo_semestre\Lab_Electronica\Exp2\Draft1.asc

Direct Newton iteration for .op point succeeded.

Date: Tue Oct 18 13:34:48 2022
Total elapsed time: 0.135 seconds.

tnom = 27
temp = 27
method = modified trap
totiter = 2085
traniter = 2082
tranpoints = 1042
accept = 1042
rejected = 0
matrix size = 12
fillins = 0
solver = Normal
Matrix Compiler1: 338 bytes object code size  0.1/0.1/[0.1]
Matrix Compiler2: 790 bytes object code size  0.1/0.1/[0.1]

