Circuit: * C:\Users\elias\OneDrive\Escritorio\ELIAS\8vo_semestre\Lab_Electronica\Exp2\fig10.asc

WARNING: Less than two connections to node NC_01.  This node is used by R9.
WARNING: Less than two connections to node N005.  This node is used by V2.
Ignoring empty pin current: Ix(u1:1)
Ignoring empty pin current: Ix(u1:2)
Ignoring empty pin current: Ix(u2:1)
Ignoring empty pin current: Ix(u2:2)

Date: Wed Oct 12 21:08:15 2022
Total elapsed time: 0.060 seconds.

tnom = 27
temp = 27
method = trap
totiter = 0
traniter = 0
tranpoints = 0
accept = 0
rejected = 0
matrix size = 9
fillins = 3
solver = Normal

