Circuit: * C:\Users\elias\OneDrive\Escritorio\ELIAS\8vo_semestre\Lab_Electronica\Exp3\Draft2.asc

Direct Newton iteration for .op point succeeded.
Ignoring empty pin current: Ix(u1:1)
Ignoring empty pin current: Ix(u1:2)
Ignoring empty pin current: Ix(u1:1)
Ignoring empty pin current: Ix(u1:2)

Date: Wed Nov 02 16:06:18 2022
Total elapsed time: 0.288 seconds.

tnom = 27
temp = 27
method = modified trap
totiter = 22391
traniter = 22388
tranpoints = 11195
accept = 10928
rejected = 267
matrix size = 25
fillins = 0
solver = Normal
Matrix Compiler1:      52 opcodes  0.3/[0.2]/0.2
Matrix Compiler2: off  [0.1]/0.3/0.2

