Circuit: * C:\Users\elias\OneDrive\Escritorio\ELIAS\8vo_semestre\Lab_Electronica\Exp3\fig_4_5.asc

Direct Newton iteration for .op point succeeded.

Date: Fri Oct 21 16:08:46 2022
Total elapsed time: 0.090 seconds.

tnom = 27
temp = 27
method = modified trap
totiter = 2110
traniter = 2092
tranpoints = 1047
accept = 1046
rejected = 1
matrix size = 45
fillins = 12
solver = Normal
Matrix Compiler1: 3.62 KB object code size  0.6/0.3/[0.2]
Matrix Compiler2: 4.37 KB object code size  0.3/0.4/[0.2]

