Circuit: * C:\Users\elias\OneDrive\Escritorio\ELIAS\8vo_semestre\Lab_Electronica\Exp3\fig_4_5.asc

Limiting fall time of source i1 to 1e-013
Direct Newton iteration for .op point succeeded.

Date: Fri Oct 28 16:36:58 2022
Total elapsed time: 0.136 seconds.

tnom = 27
temp = 27
method = modified trap
totiter = 2156
traniter = 2134
tranpoints = 1060
accept = 1053
rejected = 7
matrix size = 66
fillins = 26
solver = Normal
Matrix Compiler1: 6.22 KB object code size  0.9/0.4/[0.3]
Matrix Compiler2: 6.41 KB object code size  0.4/0.5/[0.3]

